data_created_by_vaspkit_code
_audit_creation_date          Fri Mar 18 19:00:56 2022
_pd_phase_name                     'CIF files'
_cell_length_a                    13.00000000
_cell_length_b                    13.00000000
_cell_length_c                    16.13999939
_cell_angle_alpha                     90.0000
_cell_angle_beta                      90.0000
_cell_angle_gamma                    120.0000
_symmetry_space_group_name_H-M           'P 1'
_symmetry_Int_Tables_number            1
loop_
_symmetry_equiv_pos_as_xyz
    'x, y, z'
loop_
   _atom_site_label
   _atom_site_occupancy
   _atom_site_fract_x
   _atom_site_fract_y
   _atom_site_fract_z
   _atom_site_thermal_displace_type
   _atom_site_U_iso_or_equiv
   _atom_site_type_symbol
    S001  1.0    0.291668    0.208333    0.094306  Uiso   1.00   S
    S002  1.0    0.541668    0.208333    0.094306  Uiso   1.00   S
    S003  1.0    0.791667    0.208333    0.094306  Uiso   1.00   S
    S004  1.0    0.041668    0.208333    0.094306  Uiso   1.00   S
    S005  1.0    0.291668    0.458333    0.094306  Uiso   1.00   S
    S006  1.0    0.541668    0.458333    0.094306  Uiso   1.00   S
    S007  1.0    0.791668    0.458333    0.094306  Uiso   1.00   S
    S008  1.0    0.041668    0.458333    0.094306  Uiso   1.00   S
    S009  1.0    0.291667    0.708332    0.094306  Uiso   1.00   S
    S010  1.0    0.541668    0.708332    0.094306  Uiso   1.00   S
    S011  1.0    0.791667    0.708332    0.094306  Uiso   1.00   S
    S012  1.0    0.041667    0.708332    0.094306  Uiso   1.00   S
    S013  1.0    0.291667    0.958332    0.094306  Uiso   1.00   S
    S014  1.0    0.541668    0.958332    0.094306  Uiso   1.00   S
    S015  1.0    0.791667    0.958332    0.094306  Uiso   1.00   S
    S016  1.0    0.041667    0.958332    0.094306  Uiso   1.00   S
    S017  1.0    0.208333    0.291668    0.286115  Uiso   1.00   S
    S018  1.0    0.458333    0.291668    0.286115  Uiso   1.00   S
    S019  1.0    0.708333    0.291668    0.286115  Uiso   1.00   S
    S020  1.0    0.958333    0.291668    0.286115  Uiso   1.00   S
    S021  1.0    0.208332    0.541668    0.286115  Uiso   1.00   S
    S022  1.0    0.458332    0.541668    0.286115  Uiso   1.00   S
    S023  1.0    0.708333    0.541668    0.286115  Uiso   1.00   S
    S024  1.0    0.958333    0.541668    0.286115  Uiso   1.00   S
    S025  1.0    0.208333    0.791668    0.286115  Uiso   1.00   S
    S026  1.0    0.458333    0.791668    0.286115  Uiso   1.00   S
    S027  1.0    0.708333    0.791668    0.286115  Uiso   1.00   S
    S028  1.0    0.958333    0.791668    0.286115  Uiso   1.00   S
    S029  1.0    0.208333    0.041668    0.286115  Uiso   1.00   S
    S030  1.0    0.458333    0.041668    0.286115  Uiso   1.00   S
    S031  1.0    0.708333    0.041668    0.286115  Uiso   1.00   S
    S032  1.0    0.958333    0.041668    0.286115  Uiso   1.00   S
   Mo001  1.0    0.125000    0.125000    0.190211  Uiso   1.00  Mo
   Mo002  1.0    0.375000    0.125000    0.190211  Uiso   1.00  Mo
   Mo003  1.0    0.625000    0.125000    0.190211  Uiso   1.00  Mo
   Mo004  1.0    0.875000    0.125000    0.190211  Uiso   1.00  Mo
   Mo005  1.0    0.125000    0.375000    0.190211  Uiso   1.00  Mo
   Mo006  1.0    0.375000    0.375000    0.190211  Uiso   1.00  Mo
   Mo007  1.0    0.625000    0.375000    0.190211  Uiso   1.00  Mo
   Mo008  1.0    0.875000    0.375000    0.190211  Uiso   1.00  Mo
   Mo009  1.0    0.125000    0.625000    0.190211  Uiso   1.00  Mo
   Mo010  1.0    0.375000    0.625000    0.190211  Uiso   1.00  Mo
   Mo011  1.0    0.625000    0.625000    0.190211  Uiso   1.00  Mo
   Mo012  1.0    0.875000    0.625000    0.190211  Uiso   1.00  Mo
   Mo013  1.0    0.125000    0.875000    0.190211  Uiso   1.00  Mo
   Mo014  1.0    0.375000    0.875000    0.190211  Uiso   1.00  Mo
   Mo015  1.0    0.625000    0.875000    0.190211  Uiso   1.00  Mo
   Mo016  1.0    0.875000    0.875000    0.190211  Uiso   1.00  Mo
    H001  1.0    0.208333    0.291668    0.369200  Uiso   1.00   H
